Circuit: * C:\Users\Admin\Desktop\EN2091_high frequency amplifier\push pull stage\class AB operation with emitter follower.asc

Warning: Multiple definitions of model "2scr375p" Type: BJT
Warning: Multiple definitions of model "bc857b" Type: BJT
Warning: Multiple definitions of model "bc847c" Type: BJT
Warning: Multiple definitions of model "bc847b" Type: BJT
Direct Newton iteration for .op point succeeded.

Date: Mon Jan 02 18:31:45 2023
Total elapsed time: 0.508 seconds.

tnom = 27
temp = 27
method = modified trap
totiter = 16579
traniter = 16572
tranpoints = 5940
accept = 3875
rejected = 2065
matrix size = 19
fillins = 18
solver = Normal
Matrix Compiler1: 2.44 KB object code size  2.1/1.0/[0.6]
Matrix Compiler2: 1.98 KB object code size  0.8/1.0/[0.6]

