Circuit: * C:\Users\Admin\Desktop\EN2091_high frequency amplifier\voltage amplifier\Draft3.asc

Warning: Multiple definitions of model "2scr375p" Type: BJT
Warning: Multiple definitions of model "bc857b" Type: BJT
Warning: Multiple definitions of model "bc847c" Type: BJT
Warning: Multiple definitions of model "bc847b" Type: BJT
Direct Newton iteration for .op point succeeded.

Date: Thu Dec 22 08:42:48 2022
Total elapsed time: 0.101 seconds.

tnom = 27
temp = 27
method = modified trap
totiter = 16447
traniter = 16440
tranpoints = 5970
accept = 3926
rejected = 2044
matrix size = 19
fillins = 18
solver = Normal
Matrix Compiler1: 2.44 KB object code size  0.3/0.2/[0.1]
Matrix Compiler2: 1.98 KB object code size  0.2/0.2/[0.1]

