Circuit: * C:\Users\Admin\Desktop\EN2091_high frequency amplifier\voltage amplifier\Draft2.asc

Warning: Multiple definitions of model "2scr375p" Type: BJT
Warning: Multiple definitions of model "bc857b" Type: BJT
Warning: Multiple definitions of model "bc847c" Type: BJT
Warning: Multiple definitions of model "bc847b" Type: BJT
Direct Newton iteration for .op point succeeded.

Date: Thu Dec 22 08:27:54 2022
Total elapsed time: 0.163 seconds.

tnom = 27
temp = 27
method = modified trap
totiter = 23486
traniter = 23479
tranpoints = 7839
accept = 5330
rejected = 2509
matrix size = 13
fillins = 6
solver = Normal
Matrix Compiler1: 1.25 KB object code size  0.2/0.1/[0.1]
Matrix Compiler2: 1.15 KB object code size  0.1/0.1/[0.1]

