Circuit: * C:\Users\Admin\Desktop\EN2091_high frequency amplifier\voltage amplifier\initial values for componants.asc

Warning: Multiple definitions of model "2scr375p" Type: BJT
Warning: Multiple definitions of model "bc857b" Type: BJT
Warning: Multiple definitions of model "bc847c" Type: BJT
Warning: Multiple definitions of model "bc847b" Type: BJT
Direct Newton iteration for .op point succeeded.

Date: Tue Feb 07 15:45:17 2023
Total elapsed time: 0.202 seconds.

tnom = 27
temp = 27
method = modified trap
totiter = 8778
traniter = 8774
tranpoints = 3882
accept = 2418
rejected = 1464
matrix size = 11
fillins = 0
solver = Normal
Matrix Compiler1: 574 bytes object code size  0.5/0.3/[0.3]
Matrix Compiler2: 847 bytes object code size  0.3/0.5/[0.3]

